AquaCrop 7.1 (August 2023) - Output created on (date) : 22-02-2024   at (time) : 15:11:52

    RunNr     Day1   Month1    Year1     Rain      ETo       GD     CO2      Irri   Infilt   Runoff    Drain   Upflow        E     E/Ex       Tr      TrW   Tr/Trx    SaltIn   SaltOut    SaltUp  SaltProf     Cycle   SaltStr  FertStr  WeedStr  TempStr   ExpStr   StoStr  BioMass  Brelative   HI    Y(dry)  Y(fresh)    WPet      Bin     Bout     DayN   MonthN    YearN
                                           mm       mm  degC.day    ppm        mm       mm       mm       mm       mm       mm        %       mm       mm        %    ton/ha    ton/ha    ton/ha    ton/ha      days       %        %        %        %        %        %    ton/ha        %       %    ton/ha   ton/ha    kg/m3   ton/ha   ton/ha
   Tot(1)        1        4     1992    210.7    523.7   2109.0   356.54      0.0    210.7      0.0     50.9      0.0    193.4       47    155.3    155.3      100     0.000     0.000     0.000     0.000      100        0        1        0        6        2        0     4.886       69     56.6    2.765    3.072     1.05    0.000    0.000       15        9     1992  default_project.PRO
